[Format]      =  4.0
[Frequency]   =  0
[Precision]   =  1e-008
[MinAngle]    =  30
[DoSmartMesh] =  0
[Depth]       =  1
[LengthUnits] =  meters
[ProblemType] =  planar
[Coordinates] =  cartesian
[ACSolver]    =  0
[PrevType]    =  0
[PrevSoln]    =  ""
[Comment]     =  "Add comments here."
[PointProps]   = 0
[BdryProps]   = 0
[BlockProps]  = 0
[CircuitProps]  = 0
[NumPoints] = 25
0.090715521569767588	0.020653104431738196	0	0
0.083348310108093987	0.022756044307213057	0	0
0.075584389759753595	0.0255549385612714	0	0
0.067611787706547355	0.029308046546326065	0	0
0.059830401930856716	0.034125912130636656	0	0
0.045961940777125593	0.045961940777125586	0	0
0.035355339059327376	0.035355339059327376	0	0
0.052642800517597052	0.018972846634383568	0	0
0.064768279830367342	0.01316014505046588	0	0
0.07597969344065976	0.010488985775609088	0	0
0.085712752700491474	0.0090290587406225593	0	0
0.094375380575100823	0.0080766984403523017	0	0
0.098262069012490877	0.012065064997109605	0	0
0.051142109321208926	0.041142109321208931	0	0
0.040298015526633903	0.030298015526633904	0	0
0.099000000000000005	0	0	0
0.097143519196883174	0.019082365630204073	0	0
0.098710220243928504	0.0075691756086861493	0	0
0.10000000000000001	0	0	0
0.098212869252120388	0.018821060365077916	0	0
0.099722048254692025	0.0074507108311132539	0	0
0.086602540378443879	0.049999999999999996	0	0
0.040000000000000001	0	0	0
0.028284271247461898	0.028284271247461898	0	0
0.049999999999999989	0.049999999999999996	0	0
[NumSegments] = 21
0	1	-1	0	0	0
1	2	-1	0	0	0
2	3	-1	0	0	0
3	4	-1	0	0	0
5	6	-1	0	0	0
7	8	-1	0	0	0
8	9	-1	0	0	0
9	10	-1	0	0	0
10	11	-1	0	0	0
13	14	-1	0	0	0
14	7	-1	0	0	0
13	4	-1	0	0	0
0	16	-1	0	0	0
16	19	-1	0	0	0
11	17	-1	0	0	0
17	20	-1	0	0	0
23	6	-1	0	0	0
5	24	-1	0	0	0
21	24	-1	0	0	0
22	15	-1	0	0	0
15	18	-1	0	0	0
[NumArcSegments] = 8
12	0	68.613279109846843	1	0	0	0	1
11	12	102.52054279749623	1	0	0	0	1
12	16	4.1133829361935899	1	0	0	0	1
17	12	2.6150964487513142	1	0	0	0	1
18	20	4.2729024530020574	1	0	0	0	1
20	19	6.5754730051229133	1	0	0	0	1
19	21	19.151624541875016	1	0	0	0	1
22	23	44.999999999999986	1	0	0	0	1
[NumHoles] = 0
[NumBlockLabels] = 0
